
 *******************************************************************************

         NASA-GLENN CHEMICAL EQUILIBRIUM PROGRAM CEA2, MAY 21, 2004
                   BY  BONNIE MCBRIDE AND SANFORD GORDON
      REFS: NASA RP-1311, PART I, 1994 AND NASA RP-1311, PART II, 1996

 *******************************************************************************



 problem   case=./CEAData/.temp o/f=4.0,
     rocket  tcest,k=3800
 p,psia=400.0,
 sup,ae/at=4.0
 react
 fuel=customFuel wt=1  t,f=70
     h,kj/mol=4.0312  H 2.0
 oxid=N2O wt=1  t,f=70
 end

 OPTIONS: TP=F  HP=F  SP=F  TV=F  UV=F  SV=F  DETN=F  SHOCK=F  REFL=F  INCD=F
 RKT=T  FROZ=F  EQL=F  IONS=F  SIUNIT=T  DEBUGF=F  SHKDBG=F  DETDBG=F  TRNSPT=F

 TRACE= 0.00E+00  S/R= 0.000000E+00  H/R= 0.000000E+00  U/R= 0.000000E+00

 Pc,BAR =    27.578922

 Pc/P =

 SUBSONIC AREA RATIOS =

 SUPERSONIC AREA RATIOS =     4.0000

 NFZ=  1  Mdot/Ac= 0.000000E+00  Ac/At= 0.000000E+00

    REACTANT          WT.FRAC   (ENERGY/R),K   TEMP,K  DENSITY
        EXPLODED FORMULA
 F: customFuel       1.000000   0.484839E+03   294.26  0.0000
          H  2.00000
 O: N2O              1.000000   0.979614E+04   294.26  0.0000
          N  2.00000  O  1.00000

  SPECIES BEING CONSIDERED IN THIS SYSTEM
 (CONDENSED PHASE MAY HAVE NAME LISTED SEVERAL TIMES)
  LAST thermo.inp UPDATE:    9/09/04

  g 6/97  *H               g10/01  HNO              tpis89  HNO2           
  g 5/99  HNO3             g 4/02  HO2              tpis78  *H2            
  g 8/89  H2O              g 6/99  H2O2             g 5/97  *N             
  g 4/99  *NH              g 3/01  NH2              tpis89  NH3            
  tpis89  NH2OH            tpis89  *NO              g 4/99  NO2            
  j12/64  NO3              tpis78  *N2              g 5/99  N2H2           
  tpis89  NH2NO2           g 4/99  N2H4             g 4/99  N2O            
  g 4/99  N2O3             tpis89  N2O4             g 4/99  N2O5           
  tpis89  N3               g 4/99  N3H              g 5/97  *O             
  g 4/02  *OH              tpis89  *O2              g 8/01  O3             
  g11/99  H2O(cr)          g 8/01  H2O(L)           g 8/01  H2O(L)         

 O/F =   4.000000

                       EFFECTIVE FUEL     EFFECTIVE OXIDANT        MIXTURE
 ENTHALPY                  h(2)/R              h(1)/R               h0/R
 (KG-MOL)(K)/KG        0.24050993E+03      0.22257486E+03      0.22616187E+03

 KG-FORM.WT./KG             bi(2)               bi(1)               b0i
  *H                   0.99212255E+00      0.00000000E+00      0.19842451E+00
  *N                   0.00000000E+00      0.45441326E-01      0.36353061E-01
  *O                   0.00000000E+00      0.22720663E-01      0.18176530E-01

 POINT ITN      T            H           N           O 
   1   12    1915.960      -8.198     -12.673     -24.616





           THEORETICAL ROCKET PERFORMANCE ASSUMING FROZEN COMPOSITION

 Pin =   400.0 PSIA
 CASE = ./CEAData/.temp

             REACTANT                    WT FRACTION      ENERGY      TEMP
                                          (SEE NOTE)     KJ/KG-MOL      K  
 FUEL        customFuel                   1.0000000      4031.200    294.261
 OXIDANT     N2O                          1.0000000     81450.126    294.261

 O/F=    4.00000  %FUEL= 20.000000  R,EQ.RATIO= 5.458261  PHI,EQ.RATIO= 5.458261

                 CHAMBER   THROAT     EXIT
 Pinf/P            1.0000   1.8344   29.760
 P, BAR            27.579   15.034  0.92670
 T, K             1915.96  1667.91   833.80
 RHO, KG/CU M    1.4749 0 9.2360-1 1.1388-1
 H, KJ/KG         1880.43   820.71 -2476.09
 U, KJ/KG          10.527  -807.10 -3289.84
 G, KJ/KG        -40379.3 -35967.9 -20866.9
 S, KJ/(KG)(K)    22.0567  22.0567  22.0567

 M, (1/n)           8.519    8.519    8.519
 Cp, KJ/(KG)(K)    4.3337   4.2075   3.6942
 GAMMAs            1.2907   1.3020   1.3590
 SON VEL,M/SEC     1553.5   1455.8   1051.6
 MACH NUMBER        0.000    1.000    2.807

 PERFORMANCE PARAMETERS

 Ae/At                      1.0000   4.0000
 CSTAR, M/SEC               2051.1   2051.1
 CF                         0.7098   1.4391
 Ivac, M/SEC                2574.0   3227.5
 Isp, M/SEC                 1455.8   2951.8

 MOLE FRACTIONS

 *H              0.00014   *H2             0.69008   H2O             0.15485
 NH3             0.00015   *N2             0.15478

  * THERMODYNAMIC PROPERTIES FITTED TO 20000.K

    PRODUCTS WHICH WERE CONSIDERED BUT WHOSE MOLE FRACTIONS
    WERE LESS THAN 5.000000E-06 FOR ALL ASSIGNED CONDITIONS



 NOTE. WEIGHT FRACTION OF FUEL IN TOTAL FUELS AND OF OXIDANT IN TOTAL OXIDANTS



