
 *******************************************************************************

         NASA-GLENN CHEMICAL EQUILIBRIUM PROGRAM CEA2, MAY 21, 2004
                   BY  BONNIE MCBRIDE AND SANFORD GORDON
      REFS: NASA RP-1311, PART I, 1994 AND NASA RP-1311, PART II, 1996

 *******************************************************************************



 problem   case=C:/Users/riley/Documents/SchoolAssignments/CEA/CEASimplified/CEAD
 ata/BaselessCalm.inp o/f=4.0,
     rocket  tcest,k=3800
 p,psia=400.0,
 sup,ae/at=4.0
 react
 fuel=H2 wt=1  t,f=70
 oxid=customOxidizer wt=1  t,f=70
     h,kj/mol=4.0  H 2
 end

 OPTIONS: TP=F  HP=F  SP=F  TV=F  UV=F  SV=F  DETN=F  SHOCK=F  REFL=F  INCD=F
 RKT=T  FROZ=F  EQL=F  IONS=F  SIUNIT=T  DEBUGF=F  SHKDBG=F  DETDBG=F  TRNSPT=F

 TRACE= 0.00E+00  S/R= 0.000000E+00  H/R= 0.000000E+00  U/R= 0.000000E+00

 Pc,BAR =    27.578922

 Pc/P =

 SUBSONIC AREA RATIOS =

 SUPERSONIC AREA RATIOS =     4.0000

 NFZ=  1  Mdot/Ac= 0.000000E+00  Ac/At= 0.000000E+00

    REACTANT          WT.FRAC   (ENERGY/R),K   TEMP,K  DENSITY
        EXPLODED FORMULA
 F: H2               1.000000  -0.134809E+02   294.26  0.0000
          H  2.00000
 O: customOxidizer   1.000000   0.481087E+03   294.26  0.0000
          H  2.00000

  SPECIES BEING CONSIDERED IN THIS SYSTEM
 (CONDENSED PHASE MAY HAVE NAME LISTED SEVERAL TIMES)
  LAST thermo.inp UPDATE:    9/09/04

  g 6/97  *H               tpis78  *H2            

 O/F =   4.000000

                       EFFECTIVE FUEL     EFFECTIVE OXIDANT        MIXTURE
 ENTHALPY                  h(2)/R              h(1)/R               h0/R
 (KG-MOL)(K)/KG       -0.66873745E+01      0.23864847E+03      0.18958130E+03

 KG-FORM.WT./KG             bi(2)               bi(1)               b0i
  *H                   0.99212255E+00      0.99212255E+00      0.99212255E+00

 POINT ITN      T            H 
   1   10     407.461      -6.277





           THEORETICAL ROCKET PERFORMANCE ASSUMING FROZEN COMPOSITION

 Pin =   400.0 PSIA
 CASE = C:/Users/riley/

             REACTANT                    WT FRACTION      ENERGY      TEMP
                                          (SEE NOTE)     KJ/KG-MOL      K  
 FUEL        H2                           1.0000000      -112.087    294.261
 OXIDANT     customOxidizer               1.0000000      4000.000    294.261

 O/F=    4.00000  %FUEL= 20.000000  R,EQ.RATIO= 0.000000  PHI,EQ.RATIO=-0.250000

                 CHAMBER   THROAT
 Pinf/P            1.0000   1.8937
 P, BAR            27.579   14.563
 T, K              407.46   339.59
 RHO, KG/CU M    1.6410 0 1.0398 0
 H, KJ/KG         1576.28   595.17
 U, KJ/KG         -104.30  -805.45
 G, KJ/KG        -21097.8 -18301.9
 S, KJ/(KG)(K)    55.6473  55.6473

 M, (1/n)           2.016    2.016
 Cp, KJ/(KG)(K)   14.4839  14.4112
 GAMMAs            1.3981   1.4010
 SON VEL,M/SEC     1532.9   1400.8
 MACH NUMBER        0.000    1.000

 PERFORMANCE PARAMETERS

 Ae/At                      1.0000
 CSTAR, M/SEC               1893.5
 CF                         0.7398
 Ivac, M/SEC                2400.7
 Isp, M/SEC                 1400.8

 MOLE FRACTIONS

 *H2             1.00000

  * THERMODYNAMIC PROPERTIES FITTED TO 20000.K

    PRODUCTS WHICH WERE CONSIDERED BUT WHOSE MOLE FRACTIONS
    WERE LESS THAN 5.000000E-06 FOR ALL ASSIGNED CONDITIONS



 NOTE. WEIGHT FRACTION OF FUEL IN TOTAL FUELS AND OF OXIDANT IN TOTAL OXIDANTS

 WARNING!!  CALCULATIONS WERE STOPPED BECAUSE NEXT POINT IS MORE
 THAN 50 K BELOW THE TEMPERATURE RANGE OF A CONDENSED SPECIES (ROCKET)



