
 *******************************************************************************

         NASA-GLENN CHEMICAL EQUILIBRIUM PROGRAM CEA2, MAY 21, 2004
                   BY  BONNIE MCBRIDE AND SANFORD GORDON
      REFS: NASA RP-1311, PART I, 1994 AND NASA RP-1311, PART II, 1996

 *******************************************************************************



 problem   case=CEAData/testFile o/f=4.0,
     rocket  tcest,k=3800
 p,psia=4000.0,
 sup,ae/at=4.0
 react
 fuel=customFuel wt=1  t,f=70
     h,kj/mol=0.0  H 2.0
 oxid=CL2 (L) wt=1  t,f=70

 WARNING!! (L)             NOT RECOGNIZED (INPUT)
 end

 OPTIONS: TP=F  HP=F  SP=F  TV=F  UV=F  SV=F  DETN=F  SHOCK=F  REFL=F  INCD=F
 RKT=T  FROZ=F  EQL=F  IONS=F  SIUNIT=T  DEBUGF=F  SHKDBG=F  DETDBG=F  TRNSPT=F

 TRACE= 0.00E+00  S/R= 0.000000E+00  H/R= 0.000000E+00  U/R= 0.000000E+00

 Pc,BAR =   275.789218

 Pc/P =

 SUBSONIC AREA RATIOS =

 SUPERSONIC AREA RATIOS =     4.0000

 NFZ=  1  Mdot/Ac= 0.000000E+00  Ac/At= 0.000000E+00

    REACTANT          WT.FRAC   (ENERGY/R),K   TEMP,K  DENSITY
        EXPLODED FORMULA
 F: customFuel       1.000000   0.000000E+00   294.26  0.0000
          H  2.00000
 O: CL2              1.000000  -0.158630E+02   294.26  0.0000
          CL 2.00000

  SPECIES BEING CONSIDERED IN THIS SYSTEM
 (CONDENSED PHASE MAY HAVE NAME LISTED SEVERAL TIMES)
  LAST thermo.inp UPDATE:    9/09/04

  g 7/97  *CL              tpis89  CL2              g 6/97  *H             
  tpis89  HCL              tpis78  *H2            

 O/F =   4.000000

                       EFFECTIVE FUEL     EFFECTIVE OXIDANT        MIXTURE
 ENTHALPY                  h(2)/R              h(1)/R               h0/R
 (KG-MOL)(K)/KG        0.00000000E+00     -0.22371807E+00     -0.17897445E+00

 KG-FORM.WT./KG             bi(2)               bi(1)               b0i
  *H                   0.99212255E+00      0.00000000E+00      0.19842451E+00
  *CL                  0.00000000E+00      0.28206358E-01      0.22565086E-01

 POINT ITN      T            H           CL
   1    8     936.891      -5.977     -25.958





           THEORETICAL ROCKET PERFORMANCE ASSUMING FROZEN COMPOSITION

 Pin =  4000.0 PSIA
 CASE = CEAData/testFil

             REACTANT                    WT FRACTION      ENERGY      TEMP
                                          (SEE NOTE)     KJ/KG-MOL      K  
 FUEL        customFuel                   1.0000000         0.000    294.261
 OXIDANT     CL2                          1.0000000      -131.893    294.261

 O/F=    4.00000  %FUEL= 20.000000  R,EQ.RATIO= 8.793430  PHI,EQ.RATIO= 8.793430

                 CHAMBER   THROAT     EXIT
 Pinf/P            1.0000   1.8859   33.355
 P, BAR            275.79   146.24   8.2683
 T, K              936.89   785.78   348.08
 RHO, KG/CU M    3.2041 1 2.0257 1 2.5856 0
 H, KJ/KG         -1.4881  -502.32 -1922.94
 U, KJ/KG         -862.22 -1224.23 -2242.73
 G, KJ/KG        -13800.8 -12075.9 -7049.76
 S, KJ/(KG)(K)    14.7288  14.7288  14.7288

 M, (1/n)           9.050    9.050    9.050
 Cp, KJ/(KG)(K)    3.3421   3.2891   3.2148
 GAMMAs            1.3791   1.3876   1.4001
 SON VEL,M/SEC     1089.5   1000.8    669.1
 MACH NUMBER        0.000    1.000    2.930

 PERFORMANCE PARAMETERS

 Ae/At                      1.0000   4.0000
 CSTAR, M/SEC               1360.3   1360.3
 CF                         0.7358   1.4411
 Ivac, M/SEC                1722.1   2123.5
 Isp, M/SEC                 1000.8   1960.3

 MOLE FRACTIONS

 HCL             0.20422   *H2             0.79578

  * THERMODYNAMIC PROPERTIES FITTED TO 20000.K

    PRODUCTS WHICH WERE CONSIDERED BUT WHOSE MOLE FRACTIONS
    WERE LESS THAN 5.000000E-06 FOR ALL ASSIGNED CONDITIONS



 NOTE. WEIGHT FRACTION OF FUEL IN TOTAL FUELS AND OF OXIDANT IN TOTAL OXIDANTS



