
 *******************************************************************************

         NASA-GLENN CHEMICAL EQUILIBRIUM PROGRAM CEA2, MAY 21, 2004
                   BY  BONNIE MCBRIDE AND SANFORD GORDON
      REFS: NASA RP-1311, PART I, 1994 AND NASA RP-1311, PART II, 1996

 *******************************************************************************



 problem   case=C:/Users/riley/Documents/SchoolAssignments/CEA/CEASimplified/CEAD
 ata/HydroLox.inp o/f=2.4,
     rocket  tcest,k=3800
 p,psia=400.0,
 sup,ae/at=1.0
 react
 fuel=H2 wt=1  t,f=70
 oxid=O2 wt=1  t,f=70
 end

 OPTIONS: TP=F  HP=F  SP=F  TV=F  UV=F  SV=F  DETN=F  SHOCK=F  REFL=F  INCD=F
 RKT=T  FROZ=F  EQL=F  IONS=F  SIUNIT=T  DEBUGF=F  SHKDBG=F  DETDBG=F  TRNSPT=F

 TRACE= 0.00E+00  S/R= 0.000000E+00  H/R= 0.000000E+00  U/R= 0.000000E+00

 Pc,BAR =    27.578922

 Pc/P =

 SUBSONIC AREA RATIOS =

 SUPERSONIC AREA RATIOS =     1.0000

 NFZ=  1  Mdot/Ac= 0.000000E+00  Ac/At= 0.000000E+00

    REACTANT          WT.FRAC   (ENERGY/R),K   TEMP,K  DENSITY
        EXPLODED FORMULA
 F: H2               1.000000  -0.134809E+02   294.26  0.0000
          H  2.00000
 O: O2               1.000000  -0.137365E+02   294.26  0.0000
          O  2.00000

  SPECIES BEING CONSIDERED IN THIS SYSTEM
 (CONDENSED PHASE MAY HAVE NAME LISTED SEVERAL TIMES)
  LAST thermo.inp UPDATE:    9/09/04

  g 6/97  *H               g 4/02  HO2              tpis78  *H2            
  g 8/89  H2O              g 6/99  H2O2             g 5/97  *O             
  g 4/02  *OH              tpis89  *O2              g 8/01  O3             
  g11/99  H2O(cr)          g 8/01  H2O(L)           g 8/01  H2O(L)         

 O/F =   2.400000

                       EFFECTIVE FUEL     EFFECTIVE OXIDANT        MIXTURE
 ENTHALPY                  h(2)/R              h(1)/R               h0/R
 (KG-MOL)(K)/KG       -0.66873745E+01     -0.42928323E+00     -0.22698983E+01

 KG-FORM.WT./KG             bi(2)               bi(1)               b0i
  *H                   0.99212255E+00      0.00000000E+00      0.29180075E+00
  *O                   0.00000000E+00      0.62502344E-01      0.44119302E-01

 POINT ITN      T            H           O 
   1    9    2335.245      -8.514     -21.480





           THEORETICAL ROCKET PERFORMANCE ASSUMING FROZEN COMPOSITION

 Pin =   400.0 PSIA
 CASE = C:/Users/riley/

             REACTANT                    WT FRACTION      ENERGY      TEMP
                                          (SEE NOTE)     KJ/KG-MOL      K  
 FUEL        H2                           1.0000000      -112.087    294.261
 OXIDANT     O2                           1.0000000      -114.213    294.261

 O/F=    2.40000  %FUEL= 29.411765  R,EQ.RATIO= 3.306951  PHI,EQ.RATIO= 3.306951

                 CHAMBER   THROAT     EXIT
 Pinf/P            1.0000   1.8110   1.8110
 P, BAR            27.579   15.228   15.228
 T, K             2335.25  2066.49  2066.49
 RHO, KG/CU M    9.7256-1 6.0686-1 6.0686-1
 H, KJ/KG         -18.873 -1604.54 -1604.54
 U, KJ/KG        -2854.56 -4113.88 -4113.88
 G, KJ/KG        -66636.4 -60555.3 -60555.3
 S, KJ/(KG)(K)    28.5270  28.5270  28.5270

 M, (1/n)           6.847    6.847    6.847
 Cp, KJ/(KG)(K)    5.9783   5.8173   5.8173
 GAMMAs            1.2549   1.2638   1.2638
 SON VEL,M/SEC     1886.4   1780.8   1780.8
 MACH NUMBER        0.000    1.000    1.000

 PERFORMANCE PARAMETERS

 Ae/At                      1.0000   1.0000
 CSTAR, M/SEC               2551.9   2551.9
 CF                         0.6978   0.6978
 Ivac, M/SEC                3189.9   3189.9
 Isp, M/SEC                 1780.8   1780.8

 MOLE FRACTIONS

 *H              0.00184   *H2             0.69606   H2O             0.30194
 *OH             0.00015

  * THERMODYNAMIC PROPERTIES FITTED TO 20000.K

    PRODUCTS WHICH WERE CONSIDERED BUT WHOSE MOLE FRACTIONS
    WERE LESS THAN 5.000000E-06 FOR ALL ASSIGNED CONDITIONS



 NOTE. WEIGHT FRACTION OF FUEL IN TOTAL FUELS AND OF OXIDANT IN TOTAL OXIDANTS



