
 *******************************************************************************

         NASA-GLENN CHEMICAL EQUILIBRIUM PROGRAM CEA2, MAY 21, 2004
                   BY  BONNIE MCBRIDE AND SANFORD GORDON
      REFS: NASA RP-1311, PART I, 1994 AND NASA RP-1311, PART II, 1996

 *******************************************************************************



 problem   case=C:/Users/riley/Documents/SchoolAssignments/CEA/new-CEA/CEAData/Hy
 droLox o/f=5.0,
     rocket  tcest,k=3800
 p,psia=400.0,
 sup,ae/at=4.0
 react
 fuel=customFuel wt=1  t,f=70
     h,kj/mol=24.0  H 2.0
 oxid=customOxidizer wt=1  t,f=70
     h,kj/mol=15.0  O 2.0
 end

 OPTIONS: TP=F  HP=F  SP=F  TV=F  UV=F  SV=F  DETN=F  SHOCK=F  REFL=F  INCD=F
 RKT=T  FROZ=F  EQL=F  IONS=F  SIUNIT=T  DEBUGF=F  SHKDBG=F  DETDBG=F  TRNSPT=F

 TRACE= 0.00E+00  S/R= 0.000000E+00  H/R= 0.000000E+00  U/R= 0.000000E+00

 Pc,BAR =    27.578922

 Pc/P =

 SUBSONIC AREA RATIOS =

 SUPERSONIC AREA RATIOS =     4.0000

 NFZ=  1  Mdot/Ac= 0.000000E+00  Ac/At= 0.000000E+00

    REACTANT          WT.FRAC   (ENERGY/R),K   TEMP,K  DENSITY
        EXPLODED FORMULA
 F: customFuel       1.000000   0.288652E+04   294.26  0.0000
          H  2.00000
 O: customOxidizer   1.000000   0.180408E+04   294.26  0.0000
          O  2.00000

  SPECIES BEING CONSIDERED IN THIS SYSTEM
 (CONDENSED PHASE MAY HAVE NAME LISTED SEVERAL TIMES)
  LAST thermo.inp UPDATE:    9/09/04

  g 6/97  *H               g 4/02  HO2              tpis78  *H2            
  g 8/89  H2O              g 6/99  H2O2             g 5/97  *O             
  g 4/02  *OH              tpis89  *O2              g 8/01  O3             
  g11/99  H2O(cr)          g 8/01  H2O(L)           g 8/01  H2O(L)         

 O/F =   5.000000

                       EFFECTIVE FUEL     EFFECTIVE OXIDANT        MIXTURE
 ENTHALPY                  h(2)/R              h(1)/R               h0/R
 (KG-MOL)(K)/KG        0.14318908E+04      0.56379459E+02      0.28563135E+03

 KG-FORM.WT./KG             bi(2)               bi(1)               b0i
  *H                   0.99212255E+00      0.00000000E+00      0.16535376E+00
  *O                   0.00000000E+00      0.62502344E-01      0.52085287E-01

 POINT ITN      T            H           O 
   1    9    3543.885      -9.596     -16.637





           THEORETICAL ROCKET PERFORMANCE ASSUMING FROZEN COMPOSITION

 Pin =   400.0 PSIA
 CASE = C:/Users/riley/

             REACTANT                    WT FRACTION      ENERGY      TEMP
                                          (SEE NOTE)     KJ/KG-MOL      K  
 FUEL        customFuel                   1.0000000     24000.000    294.261
 OXIDANT     customOxidizer               1.0000000     15000.000    294.261

 O/F=    5.00000  %FUEL= 16.666667  R,EQ.RATIO= 1.587337  PHI,EQ.RATIO= 1.587337

                 CHAMBER   THROAT     EXIT
 Pinf/P            1.0000   1.7828   24.476
 P, BAR            27.579   15.469   1.1268
 T, K             3543.88  3198.19  1957.54
 RHO, KG/CU M    1.0485 0 6.5170-1 7.7555-2
 H, KJ/KG         2374.88   929.33 -4004.23
 U, KJ/KG         -255.40 -1444.37 -5457.12
 G, KJ/KG        -72286.0 -66448.5 -45244.6
 S, KJ/(KG)(K)    21.0675  21.0675  21.0675

 M, (1/n)          11.202   11.202   11.202
 Cp, KJ/(KG)(K)    4.2140   4.1473   3.7517
 GAMMAs            1.2138   1.2180   1.2466
 SON VEL,M/SEC     1786.8   1700.3   1345.8
 MACH NUMBER        0.000    1.000    2.654

 PERFORMANCE PARAMETERS

 Ae/At                      1.0000   4.0000
 CSTAR, M/SEC               2488.9   2488.9
 CF                         0.6832   1.4351
 Ivac, M/SEC                3096.4   3978.6
 Isp, M/SEC                 1700.3   3571.9

 MOLE FRACTIONS

 *H              0.07317   HO2             0.00002   *H2             0.34693
 H2O             0.51524   H2O2            0.00001   *O              0.00624
 *OH             0.05482   *O2             0.00356

  * THERMODYNAMIC PROPERTIES FITTED TO 20000.K

    PRODUCTS WHICH WERE CONSIDERED BUT WHOSE MOLE FRACTIONS
    WERE LESS THAN 5.000000E-06 FOR ALL ASSIGNED CONDITIONS



 NOTE. WEIGHT FRACTION OF FUEL IN TOTAL FUELS AND OF OXIDANT IN TOTAL OXIDANTS



