
 *******************************************************************************

         NASA-GLENN CHEMICAL EQUILIBRIUM PROGRAM CEA2, MAY 21, 2004
                   BY  BONNIE MCBRIDE AND SANFORD GORDON
      REFS: NASA RP-1311, PART I, 1994 AND NASA RP-1311, PART II, 1996

 *******************************************************************************



 problem   case=C:/Users/riley/Documents/SchoolAssignments/CEA/CEASimplified/CEAD
 ata/plsWork o/f=5.0,
     rocket  tcest,k=3800
 p,psia=1e-08,
 sup,ae/at=4.0
 react
 fuel=customFuel wt=1  t,f=70
     h,kj/mol=0.0  Pb 2.0
 oxid=customOxidizer wt=1  t,f=70
     h,kj/mol=15.0  O 2.0
 end

 OPTIONS: TP=F  HP=F  SP=F  TV=F  UV=F  SV=F  DETN=F  SHOCK=F  REFL=F  INCD=F
 RKT=T  FROZ=F  EQL=F  IONS=F  SIUNIT=T  DEBUGF=F  SHKDBG=F  DETDBG=F  TRNSPT=F

 TRACE= 0.00E+00  S/R= 0.000000E+00  H/R= 0.000000E+00  U/R= 0.000000E+00

 Pc,BAR =     0.000000

 Pc/P =

 SUBSONIC AREA RATIOS =

 SUPERSONIC AREA RATIOS =     4.0000

 NFZ=  1  Mdot/Ac= 0.000000E+00  Ac/At= 0.000000E+00

    REACTANT          WT.FRAC   (ENERGY/R),K   TEMP,K  DENSITY
        EXPLODED FORMULA
 F: customFuel       1.000000   0.000000E+00   294.26  0.0000
          PB 2.00000
 O: customOxidizer   1.000000   0.180408E+04   294.26  0.0000
          O  2.00000

  SPECIES BEING CONSIDERED IN THIS SYSTEM
 (CONDENSED PHASE MAY HAVE NAME LISTED SEVERAL TIMES)
  LAST thermo.inp UPDATE:    9/09/04

  g 5/97  *O               tpis89  *O2              g 8/01  O3             
  g 8/97  *Pb              tpis91  PbO              tpis91  PbO2           
  tpis91  Pb(cr)           tpis91  Pb(L)            tpis91  PbO(II-r)      
  tpis91  PbO(II-r)        tpis91  PbO(I-y)         tpis91  PbO(L)         
  tpis91  PbO2(cr)         tpis91  PbO2(cr)         tpis91  Pb2O3(cr)      
  tpis91  Pb2O3(cr)        tpis91  Pb3O4(cr)      

 O/F =   5.000000

                       EFFECTIVE FUEL     EFFECTIVE OXIDANT        MIXTURE
 ENTHALPY                  h(2)/R              h(1)/R               h0/R
 (KG-MOL)(K)/KG        0.00000000E+00      0.56379459E+02      0.46982883E+02

 KG-FORM.WT./KG             bi(2)               bi(1)               b0i
  *Pb                  0.48262548E-02      0.00000000E+00      0.80437580E-03
  *O                   0.00000000E+00      0.62502344E-01      0.52085287E-01

 POINT ITN      T            PB          O 
   1   16     704.438     -19.572     -23.416
 ADD  PbO(II-r)      
   1    3     766.704     -20.921     -23.507
 ADD  PbO(I-y)       
   1    4     762.000     -21.120     -23.497
 REMOVE  PbO(II-r)      
   1    3     766.703     -20.922     -23.507





           THEORETICAL ROCKET PERFORMANCE ASSUMING FROZEN COMPOSITION

 Pin =     0.0 PSIA
 CASE = C:/Users/riley/

             REACTANT                    WT FRACTION      ENERGY      TEMP
                                          (SEE NOTE)     KJ/KG-MOL      K  
 FUEL        customFuel                   1.0000000         0.000    294.261
 OXIDANT     customOxidizer               1.0000000     15000.000    294.261

 O/F=    5.00000  %FUEL= 16.666667  R,EQ.RATIO= 0.015443  PHI,EQ.RATIO= 0.015443

                 CHAMBER   THROAT
 Pinf/P            1.0000
 P, BAR           0.00000
 T, K              766.70
 RHO, KG/CU M    4.120-10
 H, KJ/KG          390.64
 U, KJ/KG          223.31
 G, KJ/KG        -7912.19
 S, KJ/(KG)(K)    10.8293

 M, (1/n)          38.097
 MW, MOL WT        37.811
 Cp, KJ/(KG)(K)    0.8922
 GAMMAs            1.3238
 SON VEL,M/SEC      470.7
 MACH NUMBER        0.000

 PERFORMANCE PARAMETERS

 Ae/At          
 CSTAR, M/SEC   
 CF             
 Ivac, M/SEC    
 Isp, M/SEC     

 MOLE FRACTIONS

 *O2             0.96959   *Pb             0.00020   PbO             0.02270
 PbO(I-y)        0.00752

  * THERMODYNAMIC PROPERTIES FITTED TO 20000.K

    PRODUCTS WHICH WERE CONSIDERED BUT WHOSE MOLE FRACTIONS
    WERE LESS THAN 5.000000E-06 FOR ALL ASSIGNED CONDITIONS



 NOTE. WEIGHT FRACTION OF FUEL IN TOTAL FUELS AND OF OXIDANT IN TOTAL OXIDANTS

 WARNING!!  CALCULATIONS WERE STOPPED BECAUSE NEXT POINT IS MORE
 THAN 50 K BELOW THE TEMPERATURE RANGE OF A CONDENSED SPECIES (ROCKET)



