
 *******************************************************************************

         NASA-GLENN CHEMICAL EQUILIBRIUM PROGRAM CEA2, MAY 21, 2004
                   BY  BONNIE MCBRIDE AND SANFORD GORDON
      REFS: NASA RP-1311, PART I, 1994 AND NASA RP-1311, PART II, 1996

 *******************************************************************************



 problem   case=C:/Users/riley/Documents/SchoolAssignments/CEA/CEASimplified/CEAD
 ata/Yay o/f=6.0,
     rocket  tcest,k=3800
 p,psia=350.0,
 sup,ae/at=4.0
 react
 fuel=H2 wt=1  t,f=70
 oxid=N2O wt=1  t,f=70
 end

 OPTIONS: TP=F  HP=F  SP=F  TV=F  UV=F  SV=F  DETN=F  SHOCK=F  REFL=F  INCD=F
 RKT=T  FROZ=F  EQL=F  IONS=F  SIUNIT=T  DEBUGF=F  SHKDBG=F  DETDBG=F  TRNSPT=F

 TRACE= 0.00E+00  S/R= 0.000000E+00  H/R= 0.000000E+00  U/R= 0.000000E+00

 Pc,BAR =    24.131557

 Pc/P =

 SUBSONIC AREA RATIOS =

 SUPERSONIC AREA RATIOS =     4.0000

 NFZ=  1  Mdot/Ac= 0.000000E+00  Ac/At= 0.000000E+00

    REACTANT          WT.FRAC   (ENERGY/R),K   TEMP,K  DENSITY
        EXPLODED FORMULA
 F: H2               1.000000  -0.134809E+02   294.26  0.0000
          H  2.00000
 O: N2O              1.000000   0.979614E+04   294.26  0.0000
          N  2.00000  O  1.00000

  SPECIES BEING CONSIDERED IN THIS SYSTEM
 (CONDENSED PHASE MAY HAVE NAME LISTED SEVERAL TIMES)
  LAST thermo.inp UPDATE:    9/09/04

  g 6/97  *H               g10/01  HNO              tpis89  HNO2           
  g 5/99  HNO3             g 4/02  HO2              tpis78  *H2            
  g 8/89  H2O              g 6/99  H2O2             g 5/97  *N             
  g 4/99  *NH              g 3/01  NH2              tpis89  NH3            
  tpis89  NH2OH            tpis89  *NO              g 4/99  NO2            
  j12/64  NO3              tpis78  *N2              g 5/99  N2H2           
  tpis89  NH2NO2           g 4/99  N2H4             g 4/99  N2O            
  g 4/99  N2O3             tpis89  N2O4             g 4/99  N2O5           
  tpis89  N3               g 4/99  N3H              g 5/97  *O             
  g 4/02  *OH              tpis89  *O2              g 8/01  O3             
  g11/99  H2O(cr)          g 8/01  H2O(L)           g 8/01  H2O(L)         

 O/F =   6.000000

                       EFFECTIVE FUEL     EFFECTIVE OXIDANT        MIXTURE
 ENTHALPY                  h(2)/R              h(1)/R               h0/R
 (KG-MOL)(K)/KG       -0.66873745E+01      0.22257486E+03      0.18982311E+03

 KG-FORM.WT./KG             bi(2)               bi(1)               b0i
  *H                   0.99212255E+00      0.00000000E+00      0.14173179E+00
  *N                   0.00000000E+00      0.45441326E-01      0.38949708E-01
  *O                   0.00000000E+00      0.22720663E-01      0.19474854E-01

 POINT ITN      T            H           N           O 
   1   13    2289.812      -8.650     -12.879     -21.835





           THEORETICAL ROCKET PERFORMANCE ASSUMING FROZEN COMPOSITION

 Pin =   350.0 PSIA
 CASE = C:/Users/riley/

             REACTANT                    WT FRACTION      ENERGY      TEMP
                                          (SEE NOTE)     KJ/KG-MOL      K  
 FUEL        H2                           1.0000000      -112.087    294.261
 OXIDANT     N2O                          1.0000000     81450.126    294.261

 O/F=    6.00000  %FUEL= 14.285714  R,EQ.RATIO= 3.638841  PHI,EQ.RATIO= 3.638841

                 CHAMBER   THROAT     EXIT
 Pinf/P            1.0000   1.8184   28.095
 P, BAR            24.132   13.271  0.85893
 T, K             2289.81  2015.35  1069.52
 RHO, KG/CU M    1.4021 0 8.7605-1 1.0684-1
 H, KJ/KG         1578.29   611.87 -2482.46
 U, KJ/KG         -142.87  -902.99 -3286.37
 G, KJ/KG        -40986.8 -36851.3 -22363.6
 S, KJ/(KG)(K)    18.5889  18.5889  18.5889

 M, (1/n)          11.062   11.062   11.062
 Cp, KJ/(KG)(K)    3.5639   3.4758   3.0313
 GAMMAs            1.2673   1.2759   1.3297
 SON VEL,M/SEC     1476.9   1390.3   1033.9
 MACH NUMBER        0.000    1.000    2.756

 PERFORMANCE PARAMETERS

 Ae/At                      1.0000   4.0000
 CSTAR, M/SEC               1981.3   1981.3
 CF                         0.7017   1.4383
 Ivac, M/SEC                2479.9   3131.9
 Isp, M/SEC                 1390.3   2849.8

 MOLE FRACTIONS

 *H              0.00141   *H2             0.56771   H2O             0.21533
 NH3             0.00006   *N2             0.21539   *OH             0.00009

  * THERMODYNAMIC PROPERTIES FITTED TO 20000.K

    PRODUCTS WHICH WERE CONSIDERED BUT WHOSE MOLE FRACTIONS
    WERE LESS THAN 5.000000E-06 FOR ALL ASSIGNED CONDITIONS



 NOTE. WEIGHT FRACTION OF FUEL IN TOTAL FUELS AND OF OXIDANT IN TOTAL OXIDANTS



